3
Lattice="8.46683536902 0.0 0.0 0.0 8.46683536902 0.0 0.0 0.0 8.46683536902" Properties=species:S:1:pos:R:3:Z:I:1 pbc="T T T"
Mo      4.23341768       4.23341768       4.23341768       42 
S      5.73341768       4.23341768       4.23341768       16 
S      2.73341768       4.23341768       4.23341768       16 
